<?xml version="1.0" encoding="UTF-8"?>

<nodes version="1.16" xmlns:xsi="http://www.w3.org/2001/XMLSchema-instance" xsi:noNamespaceSchemaLocation="http://sumo.dlr.de/xsd/nodes_file.xsd">
    <location netOffset="0.00,0.00" convBoundary="0.00,0.00,900.00,900.00" origBoundary="0.00,0.00,900.00,900.00" projParameter="!"/>

    <node id="A0" x="0.00" y="0.00" type="traffic_light" tl="A0"/>
    <node id="A1" x="0.00" y="100.00" type="traffic_light" tl="A1"/>
    <node id="A2" x="0.00" y="200.00" type="traffic_light" tl="A2"/>
    <node id="A3" x="0.00" y="300.00" type="traffic_light" tl="A3"/>
    <node id="A4" x="0.00" y="400.00" type="traffic_light" tl="A4"/>
    <node id="A5" x="0.00" y="500.00" type="traffic_light" tl="A5"/>
    <node id="A6" x="0.00" y="600.00" type="traffic_light" tl="A6"/>
    <node id="A7" x="0.00" y="700.00" type="traffic_light" tl="A7"/>
    <node id="A8" x="0.00" y="800.00" type="traffic_light" tl="A8"/>
    <node id="A9" x="0.00" y="900.00" type="traffic_light" tl="A9"/>
    <node id="B0" x="100.00" y="0.00" type="traffic_light" tl="B0"/>
    <node id="B1" x="100.00" y="100.00" type="traffic_light" tl="B1"/>
    <node id="B2" x="100.00" y="200.00" type="traffic_light" tl="B2"/>
    <node id="B3" x="100.00" y="300.00" type="traffic_light" tl="B3"/>
    <node id="B4" x="100.00" y="400.00" type="traffic_light" tl="B4"/>
    <node id="B5" x="100.00" y="500.00" type="traffic_light" tl="B5"/>
    <node id="B6" x="100.00" y="600.00" type="traffic_light" tl="B6"/>
    <node id="B7" x="100.00" y="700.00" type="traffic_light" tl="B7"/>
    <node id="B8" x="100.00" y="800.00" type="traffic_light" tl="B8"/>
    <node id="B9" x="100.00" y="900.00" type="traffic_light" tl="B9"/>
    <node id="C0" x="200.00" y="0.00" type="traffic_light" tl="C0"/>
    <node id="C1" x="200.00" y="100.00" type="traffic_light" tl="C1"/>
    <node id="C2" x="200.00" y="200.00" type="traffic_light" tl="C2"/>
    <node id="C3" x="200.00" y="300.00" type="traffic_light" tl="C3"/>
    <node id="C4" x="200.00" y="400.00" type="traffic_light" tl="C4"/>
    <node id="C5" x="200.00" y="500.00" type="traffic_light" tl="C5"/>
    <node id="C6" x="200.00" y="600.00" type="traffic_light" tl="C6"/>
    <node id="C7" x="200.00" y="700.00" type="traffic_light" tl="C7"/>
    <node id="C8" x="200.00" y="800.00" type="traffic_light" tl="C8"/>
    <node id="C9" x="200.00" y="900.00" type="traffic_light" tl="C9"/>
    <node id="D0" x="300.00" y="0.00" type="traffic_light" tl="D0"/>
    <node id="D1" x="300.00" y="100.00" type="traffic_light" tl="D1"/>
    <node id="D2" x="300.00" y="200.00" type="traffic_light" tl="D2"/>
    <node id="D3" x="300.00" y="300.00" type="traffic_light" tl="D3"/>
    <node id="D4" x="300.00" y="400.00" type="traffic_light" tl="D4"/>
    <node id="D5" x="300.00" y="500.00" type="traffic_light" tl="D5"/>
    <node id="D6" x="300.00" y="600.00" type="traffic_light" tl="D6"/>
    <node id="D7" x="300.00" y="700.00" type="traffic_light" tl="D7"/>
    <node id="D8" x="300.00" y="800.00" type="traffic_light" tl="D8"/>
    <node id="D9" x="300.00" y="900.00" type="traffic_light" tl="D9"/>
    <node id="E0" x="400.00" y="0.00" type="traffic_light" tl="E0"/>
    <node id="E1" x="400.00" y="100.00" type="traffic_light" tl="E1"/>
    <node id="E2" x="400.00" y="200.00" type="traffic_light" tl="E2"/>
    <node id="E3" x="400.00" y="300.00" type="traffic_light" tl="E3"/>
    <node id="E4" x="400.00" y="400.00" type="traffic_light" tl="E4"/>
    <node id="E5" x="400.00" y="500.00" type="traffic_light" tl="E5"/>
    <node id="E6" x="400.00" y="600.00" type="traffic_light" tl="E6"/>
    <node id="E7" x="400.00" y="700.00" type="traffic_light" tl="E7"/>
    <node id="E8" x="400.00" y="800.00" type="traffic_light" tl="E8"/>
    <node id="E9" x="400.00" y="900.00" type="traffic_light" tl="E9"/>
    <node id="F0" x="500.00" y="0.00" type="traffic_light" tl="F0"/>
    <node id="F1" x="500.00" y="100.00" type="traffic_light" tl="F1"/>
    <node id="F2" x="500.00" y="200.00" type="traffic_light" tl="F2"/>
    <node id="F3" x="500.00" y="300.00" type="traffic_light" tl="F3"/>
    <node id="F4" x="500.00" y="400.00" type="traffic_light" tl="F4"/>
    <node id="F5" x="500.00" y="500.00" type="traffic_light" tl="F5"/>
    <node id="F6" x="500.00" y="600.00" type="traffic_light" tl="F6"/>
    <node id="F7" x="500.00" y="700.00" type="traffic_light" tl="F7"/>
    <node id="F8" x="500.00" y="800.00" type="traffic_light" tl="F8"/>
    <node id="F9" x="500.00" y="900.00" type="traffic_light" tl="F9"/>
    <node id="G0" x="600.00" y="0.00" type="traffic_light" tl="G0"/>
    <node id="G1" x="600.00" y="100.00" type="traffic_light" tl="G1"/>
    <node id="G2" x="600.00" y="200.00" type="traffic_light" tl="G2"/>
    <node id="G3" x="600.00" y="300.00" type="traffic_light" tl="G3"/>
    <node id="G4" x="600.00" y="400.00" type="traffic_light" tl="G4"/>
    <node id="G5" x="600.00" y="500.00" type="traffic_light" tl="G5"/>
    <node id="G6" x="600.00" y="600.00" type="traffic_light" tl="G6"/>
    <node id="G7" x="600.00" y="700.00" type="traffic_light" tl="G7"/>
    <node id="G8" x="600.00" y="800.00" type="traffic_light" tl="G8"/>
    <node id="G9" x="600.00" y="900.00" type="traffic_light" tl="G9"/>
    <node id="H0" x="700.00" y="0.00" type="traffic_light" tl="H0"/>
    <node id="H1" x="700.00" y="100.00" type="traffic_light" tl="H1"/>
    <node id="H2" x="700.00" y="200.00" type="traffic_light" tl="H2"/>
    <node id="H3" x="700.00" y="300.00" type="traffic_light" tl="H3"/>
    <node id="H4" x="700.00" y="400.00" type="traffic_light" tl="H4"/>
    <node id="H5" x="700.00" y="500.00" type="traffic_light" tl="H5"/>
    <node id="H6" x="700.00" y="600.00" type="traffic_light" tl="H6"/>
    <node id="H7" x="700.00" y="700.00" type="traffic_light" tl="H7"/>
    <node id="H8" x="700.00" y="800.00" type="traffic_light" tl="H8"/>
    <node id="H9" x="700.00" y="900.00" type="traffic_light" tl="H9"/>
    <node id="I0" x="800.00" y="0.00" type="traffic_light" tl="I0"/>
    <node id="I1" x="800.00" y="100.00" type="traffic_light" tl="I1"/>
    <node id="I2" x="800.00" y="200.00" type="traffic_light" tl="I2"/>
    <node id="I3" x="800.00" y="300.00" type="traffic_light" tl="I3"/>
    <node id="I4" x="800.00" y="400.00" type="traffic_light" tl="I4"/>
    <node id="I5" x="800.00" y="500.00" type="traffic_light" tl="I5"/>
    <node id="I6" x="800.00" y="600.00" type="traffic_light" tl="I6"/>
    <node id="I7" x="800.00" y="700.00" type="traffic_light" tl="I7"/>
    <node id="I8" x="800.00" y="800.00" type="traffic_light" tl="I8"/>
    <node id="I9" x="800.00" y="900.00" type="traffic_light" tl="I9"/>
    <node id="J0" x="900.00" y="0.00" type="traffic_light" tl="J0"/>
    <node id="J1" x="900.00" y="100.00" type="traffic_light" tl="J1"/>
    <node id="J2" x="900.00" y="200.00" type="traffic_light" tl="J2"/>
    <node id="J3" x="900.00" y="300.00" type="traffic_light" tl="J3"/>
    <node id="J4" x="900.00" y="400.00" type="traffic_light" tl="J4"/>
    <node id="J5" x="900.00" y="500.00" type="traffic_light" tl="J5"/>
    <node id="J6" x="900.00" y="600.00" type="traffic_light" tl="J6"/>
    <node id="J7" x="900.00" y="700.00" type="traffic_light" tl="J7"/>
    <node id="J8" x="900.00" y="800.00" type="traffic_light" tl="J8"/>
    <node id="J9" x="900.00" y="900.00" type="traffic_light" tl="J9"/>
</nodes>
