<?xml version="1.0" encoding="UTF-8"?>

<!-- generated on 2024-05-16 15:31:02.721368 by osmWebWizard.py v1_19_0+1953-d1f119dd4db
<configuration>
    <net-file value="C:\Users\jetmi\Sumo\2024-05-16-15-30-39\osm.net.xml.gz"/>
    <output-trip-file value="C:\Users\jetmi\Sumo\2024-05-16-15-30-39\osm.passenger.trips.xml"/>
    <route-file value="C:\Users\jetmi\Sumo\2024-05-16-15-30-39\osm.passenger.rou.xml"/>
    <prefix value="veh"/>
    <trip-attributes value="departLane=&quot;best&quot;"/>
    <fringe-start-attributes value="departSpeed=&quot;max&quot;"/>
    <vehicle-class value="passenger"/>
    <lanes value="True"/>
    <fringe-factor value="12"/>
    <allow-fringe.min-length value="1000.0"/>
    <via-edge-types value="highway.motorway,highway.motorway_link,highway.trunk_link,highway.primary_link,highway.secondary_link,highway.tertiary_link"/>
    <min-distance value="300.0"/>
    <min-distance.fringe value="10.0"/>
    <remove-loops value="True"/>
    <validate value="True"/>
    <insertion-density value="30.0"/>
</configuration>
-->

<!-- generated on 2024-05-16 15:31:01 by Eclipse SUMO duarouter Version v1_19_0+1953-d1f119dd4db
<configuration xmlns:xsi="http://www.w3.org/2001/XMLSchema-instance" xsi:noNamespaceSchemaLocation="http://sumo.dlr.de/xsd/duarouterConfiguration.xsd">

    <input>
        <net-file value="C:\Users\jetmi\Sumo\2024-05-16-15-30-39\osm.net.xml.gz"/>
        <route-files value="C:\Users\jetmi\Sumo\2024-05-16-15-30-39\osm.passenger.trips.xml"/>
    </input>

    <output>
        <output-file value="C:\Users\jetmi\Sumo\2024-05-16-15-30-39\osm.passenger.trips.xml.tmp"/>
        <alternatives-output value="NUL"/>
        <write-trips value="true"/>
    </output>

    <processing>
        <remove-loops value="true"/>
    </processing>

    <time>
        <begin value="0.0"/>
        <end value="3600.0"/>
    </time>

    <report>
        <no-warnings value="true"/>
        <ignore-errors value="true"/>
        <no-step-log value="true"/>
    </report>

</configuration>
-->

<routes xmlns:xsi="http://www.w3.org/2001/XMLSchema-instance" xsi:noNamespaceSchemaLocation="http://sumo.dlr.de/xsd/routes_file.xsd">
    <vType id="veh_passenger" vClass="passenger"/>
    <trip id="veh0" type="veh_passenger" depart="0.00" departLane="best" departSpeed="max" from="195743182#0" to="1165644579#0"/>
    <trip id="veh1" type="veh_passenger" depart="0.61" departLane="best" from="5671115#4" to="497165757#0"/>
    <trip id="veh2" type="veh_passenger" depart="1.23" departLane="best" from="569345537#0" to="1024425029#0"/>
    <trip id="veh3" type="veh_passenger" depart="1.84" departLane="best" from="420356172#0" to="460589632"/>
    <trip id="veh4" type="veh_passenger" depart="2.46" departLane="best" from="1211608943#0" to="458166897#14"/>
    <trip id="veh5" type="veh_passenger" depart="3.07" departLane="best" departSpeed="max" from="-226041024" to="1106482766#0"/>
    <trip id="veh6" type="veh_passenger" depart="3.68" departLane="best" departSpeed="max" from="46538405#0" to="458180189#0"/>
    <trip id="veh7" type="veh_passenger" depart="4.30" departLane="best" from="1211612938" to="46435596#0"/>
    <trip id="veh8" type="veh_passenger" depart="4.91" departLane="best" departSpeed="max" from="600848485#0" to="-169267538#1"/>
    <trip id="veh9" type="veh_passenger" depart="5.52" departLane="best" departSpeed="max" from="600848485#0" to="511699182#3"/>
    <trip id="veh10" type="veh_passenger" depart="6.14" departLane="best" from="226041032#0" to="1049920718#0"/>
    <trip id="veh11" type="veh_passenger" depart="6.75" departLane="best" departSpeed="max" from="963588773" to="320888292"/>
    <trip id="veh12" type="veh_passenger" depart="7.37" departLane="best" from="681042531#0" to="46443637"/>
    <trip id="veh13" type="veh_passenger" depart="7.98" departLane="best" departSpeed="max" from="600848485#0" to="5670106#6"/>
    <trip id="veh14" type="veh_passenger" depart="8.59" departLane="best" departSpeed="max" from="458166897#0" to="965834570"/>
    <trip id="veh15" type="veh_passenger" depart="9.21" departLane="best" from="384178816#3" to="458180193#0"/>
    <trip id="veh16" type="veh_passenger" depart="9.82" departLane="best" departSpeed="max" from="630828581#0" to="46481741#0"/>
    <trip id="veh17" type="veh_passenger" depart="10.44" departLane="best" departSpeed="max" from="68325061" to="460585328#13"/>
    <trip id="veh18" type="veh_passenger" depart="11.05" departLane="best" departSpeed="max" from="1250866957#0" to="195743208#0"/>
    <trip id="veh19" type="veh_passenger" depart="11.66" departLane="best" from="1025734017#0" to="1201651432#0"/>
    <trip id="veh20" type="veh_passenger" depart="12.28" departLane="best" departSpeed="max" from="46521998#0" to="388696207#3"/>
    <trip id="veh21" type="veh_passenger" depart="12.89" departLane="best" from="350726030#0" to="1136391284#0"/>
    <trip id="veh22" type="veh_passenger" depart="13.50" departLane="best" departSpeed="max" from="195743182#0" to="95181774#0"/>
    <trip id="veh23" type="veh_passenger" depart="14.12" departLane="best" departSpeed="max" from="46538405#0" to="464516471#10"/>
    <trip id="veh24" type="veh_passenger" depart="14.73" departLane="best" departSpeed="max" from="1135661890#0" to="5670106#3"/>
    <trip id="veh25" type="veh_passenger" depart="15.35" departLane="best" from="1135620538#0" to="420276995#0"/>
    <trip id="veh26" type="veh_passenger" depart="15.96" departLane="best" from="-989265268#2" to="46522003#0"/>
    <trip id="veh27" type="veh_passenger" depart="16.57" departLane="best" from="458180181#0" to="497258109#0"/>
    <trip id="veh29" type="veh_passenger" depart="17.80" departLane="best" departSpeed="max" from="1250866957#0" to="46482539#0"/>
    <trip id="veh30" type="veh_passenger" depart="18.41" departLane="best" from="196116976#0" to="-167922077#2"/>
    <trip id="veh31" type="veh_passenger" depart="19.03" departLane="best" from="1205900284" to="95181774#0"/>
    <trip id="veh32" type="veh_passenger" depart="19.64" departLane="best" departSpeed="max" from="68668540" to="198924778#0"/>
    <trip id="veh33" type="veh_passenger" depart="20.26" departLane="best" departSpeed="max" from="46538405#0" to="420890028"/>
    <trip id="veh35" type="veh_passenger" depart="21.48" departLane="best" from="194926855#0" to="1211608942#0"/>
    <trip id="veh36" type="veh_passenger" depart="22.10" departLane="best" from="458180186#4" to="167922070#0"/>
    <trip id="veh37" type="veh_passenger" depart="22.71" departLane="best" from="460585328#0" to="803047267#0"/>
    <trip id="veh38" type="veh_passenger" depart="23.33" departLane="best" departSpeed="max" from="396444295#0" to="1156946158#0"/>
    <trip id="veh39" type="veh_passenger" depart="23.94" departLane="best" from="992144531#0" to="458166897#20"/>
    <trip id="veh40" type="veh_passenger" depart="24.55" departLane="best" from="1027189510#0" to="-542096280#1"/>
    <trip id="veh41" type="veh_passenger" depart="25.17" departLane="best" departSpeed="max" from="1036712190" to="46490537#1"/>
    <trip id="veh42" type="veh_passenger" depart="25.78" departLane="best" departSpeed="max" from="584971499#0" to="420901922#0"/>
    <trip id="veh43" type="veh_passenger" depart="26.39" departLane="best" from="-989265269#1" to="420281338#0"/>
    <trip id="veh44" type="veh_passenger" depart="27.01" departLane="best" from="989265274#0" to="458166897#26"/>
    <trip id="veh45" type="veh_passenger" depart="27.62" departLane="best" from="968513229#0" to="717634370#0"/>
    <trip id="veh46" type="veh_passenger" depart="28.24" departLane="best" from="-167922072#1" to="542257009#3"/>
    <trip id="veh47" type="veh_passenger" depart="28.85" departLane="best" from="497165753#6" to="458180183#0"/>
    <trip id="veh48" type="veh_passenger" depart="29.46" departLane="best" departSpeed="max" from="195743182#0" to="46522003#0"/>
    <trip id="veh49" type="veh_passenger" depart="30.08" departLane="best" departSpeed="max" from="1036712190" to="420901925"/>
    <trip id="veh50" type="veh_passenger" depart="30.69" departLane="best" departSpeed="max" from="420901681#1" to="962626218#0"/>
    <trip id="veh51" type="veh_passenger" depart="31.31" departLane="best" departSpeed="max" from="68668540" to="167922071#0"/>
    <trip id="veh52" type="veh_passenger" depart="31.92" departLane="best" from="421852030" to="1080185969#0"/>
    <trip id="veh53" type="veh_passenger" depart="32.53" departLane="best" from="808190576#0" to="717634746"/>
    <trip id="veh54" type="veh_passenger" depart="33.15" departLane="best" from="195743342#9" to="46522003#0"/>
    <trip id="veh55" type="veh_passenger" depart="33.76" departLane="best" from="464516471#10" to="1049888072"/>
    <trip id="veh56" type="veh_passenger" depart="34.37" departLane="best" from="569345543#0" to="458166897#26"/>
    <trip id="veh57" type="veh_passenger" depart="34.99" departLane="best" from="-1081893303#1" to="226041028#0"/>
    <trip id="veh58" type="veh_passenger" depart="35.60" departLane="best" departSpeed="max" from="-195743208#4" to="95181774#0"/>
    <trip id="veh59" type="veh_passenger" depart="36.22" departLane="best" departSpeed="max" from="68668540" to="68506901#0"/>
    <trip id="veh60" type="veh_passenger" depart="36.83" departLane="best" departSpeed="max" from="68668540" to="1041012063#0"/>
    <trip id="veh61" type="veh_passenger" depart="37.44" departLane="best" from="1027181005#0" to="421853646#1"/>
    <trip id="veh63" type="veh_passenger" depart="38.67" departLane="best" from="569345515#12" to="1030123272#0"/>
    <trip id="veh64" type="veh_passenger" depart="39.28" departLane="best" from="420901922#0" to="5673497#0"/>
    <trip id="veh65" type="veh_passenger" depart="39.90" departLane="best" from="194926855#0" to="717634746"/>
    <trip id="veh66" type="veh_passenger" depart="40.51" departLane="best" from="420356173#0" to="1136460180#0"/>
    <trip id="veh67" type="veh_passenger" depart="41.13" departLane="best" departSpeed="max" from="458166897#0" to="5670106#6"/>
    <trip id="veh68" type="veh_passenger" depart="41.74" departLane="best" from="1198594026#0" to="198595461#2"/>
    <trip id="veh70" type="veh_passenger" depart="42.97" departLane="best" from="420892269#0" to="458166897#26"/>
    <trip id="veh71" type="veh_passenger" depart="43.58" departLane="best" from="1049841322#9" to="196117083#0"/>
    <trip id="veh72" type="veh_passenger" depart="44.20" departLane="best" from="226041025#0" to="46334593#0"/>
    <trip id="veh73" type="veh_passenger" depart="44.81" departLane="best" departSpeed="max" from="1250866957#0" to="1156946159#0"/>
    <trip id="veh74" type="veh_passenger" depart="45.42" departLane="best" from="1021481768#0" to="46492008"/>
    <trip id="veh75" type="veh_passenger" depart="46.04" departLane="best" departSpeed="max" from="1250866957#0" to="808190588"/>
    <trip id="veh77" type="veh_passenger" depart="47.26" departLane="best" from="1207834768#0" to="1030123272#0"/>
    <trip id="veh78" type="veh_passenger" depart="47.88" departLane="best" from="945460473#0" to="458180199#5"/>
    <trip id="veh79" type="veh_passenger" depart="48.49" departLane="best" from="733667933#0" to="569345536#0"/>
    <trip id="veh80" type="veh_passenger" depart="49.11" departLane="best" departSpeed="max" from="600848485#0" to="1081893303#2"/>
    <trip id="veh82" type="veh_passenger" depart="50.33" departLane="best" from="420356173#0" to="421852036#1"/>
    <trip id="veh83" type="veh_passenger" depart="50.95" departLane="best" from="5670114#0" to="497165756#0"/>
    <trip id="veh84" type="veh_passenger" depart="51.56" departLane="best" departSpeed="max" from="988977545#1" to="1027130505#0"/>
    <trip id="veh85" type="veh_passenger" depart="52.18" departLane="best" departSpeed="max" from="396444295#0" to="320888292"/>
    <trip id="veh86" type="veh_passenger" depart="52.79" departLane="best" departSpeed="max" from="68325061" to="1211612936"/>
    <trip id="veh87" type="veh_passenger" depart="53.40" departLane="best" from="1156946157#0" to="420906755#0"/>
    <trip id="veh88" type="veh_passenger" depart="54.02" departLane="best" from="420356172#0" to="194926847#0"/>
    <trip id="veh89" type="veh_passenger" depart="54.63" departLane="best" from="167922075#0" to="945460473#0"/>
    <trip id="veh90" type="veh_passenger" depart="55.24" departLane="best" from="420892275#0" to="717634370#0"/>
    <trip id="veh91" type="veh_passenger" depart="55.86" departLane="best" from="458166897#20" to="-5671801"/>
    <trip id="veh92" type="veh_passenger" depart="56.47" departLane="best" from="992144532#1" to="68674962#1"/>
    <trip id="veh93" type="veh_passenger" depart="57.09" departLane="best" from="965836271" to="95181774#0"/>
    <trip id="veh94" type="veh_passenger" depart="57.70" departLane="best" from="682359029#0" to="1052660935#0"/>
    <trip id="veh95" type="veh_passenger" depart="58.31" departLane="best" from="420905130#0" to="1136952921#0"/>
    <trip id="veh96" type="veh_passenger" depart="58.93" departLane="best" departSpeed="max" from="396444295#0" to="496986803#0"/>
    <trip id="veh97" type="veh_passenger" depart="59.54" departLane="best" departSpeed="max" from="384649120#0" to="988984232"/>
    <trip id="veh98" type="veh_passenger" depart="60.15" departLane="best" from="194926855#0" to="569345535#0"/>
    <trip id="veh99" type="veh_passenger" depart="60.77" departLane="best" departSpeed="max" from="420901681#1" to="420901922#0"/>
    <trip id="veh100" type="veh_passenger" depart="61.38" departLane="best" departSpeed="max" from="963588773" to="989265273#3"/>
    <trip id="veh101" type="veh_passenger" depart="62.00" departLane="best" from="458166897#8" to="541350711#3"/>
    <trip id="veh102" type="veh_passenger" depart="62.61" departLane="best" from="1106482765#2" to="195743336#3"/>
    <trip id="veh103" type="veh_passenger" depart="63.22" departLane="best" from="965836271" to="460585328#19"/>
    <trip id="veh104" type="veh_passenger" depart="63.84" departLane="best" departSpeed="max" from="458166897#0" to="5671574#0"/>
    <trip id="veh105" type="veh_passenger" depart="64.45" departLane="best" from="421852033" to="709355577#0"/>
    <trip id="veh106" type="veh_passenger" depart="65.07" departLane="best" from="1123877140#0" to="963613972#0"/>
    <trip id="veh107" type="veh_passenger" depart="65.68" departLane="best" from="1025734018#0" to="1081893303#2"/>
    <trip id="veh108" type="veh_passenger" depart="66.29" departLane="best" departSpeed="max" from="1250866957#0" to="1030123272#0"/>
    <trip id="veh109" type="veh_passenger" depart="66.91" departLane="best" from="709355577#2" to="1211049195#0"/>
    <trip id="veh110" type="veh_passenger" depart="67.52" departLane="best" from="46226335" to="-46481744#2"/>
    <trip id="veh111" type="veh_passenger" depart="68.13" departLane="best" departSpeed="max" from="420356168#0" to="460589632"/>
    <trip id="veh112" type="veh_passenger" depart="68.75" departLane="best" from="441405436#0" to="95181774#0"/>
    <trip id="veh113" type="veh_passenger" depart="69.36" departLane="best" departSpeed="max" from="1250866957#0" to="420890028"/>
    <trip id="veh115" type="veh_passenger" depart="70.59" departLane="best" from="196116976#3" to="5672142#0"/>
    <trip id="veh116" type="veh_passenger" depart="71.20" departLane="best" from="1022796561" to="421852041"/>
    <trip id="veh117" type="veh_passenger" depart="71.82" departLane="best" from="992144532#0" to="989265274#0"/>
    <trip id="veh118" type="veh_passenger" depart="72.43" departLane="best" from="1022822152#0" to="1136952921#0"/>
    <trip id="veh119" type="veh_passenger" depart="73.05" departLane="best" from="194926855#0" to="95181774#0"/>
    <trip id="veh120" type="veh_passenger" depart="73.66" departLane="best" departSpeed="max" from="68668540" to="727702633#0"/>
    <trip id="veh121" type="veh_passenger" depart="74.27" departLane="best" from="35027229#0" to="1051734606#0"/>
    <trip id="veh122" type="veh_passenger" depart="74.89" departLane="best" departSpeed="max" from="630828581#0" to="511924978#1"/>
    <trip id="veh123" type="veh_passenger" depart="75.50" departLane="best" from="5670124" to="988987066#0"/>
    <trip id="veh124" type="veh_passenger" depart="76.11" departLane="best" departSpeed="max" from="46538405#0" to="420899373"/>
    <trip id="veh125" type="veh_passenger" depart="76.73" departLane="best" departSpeed="max" from="60325668" to="195743336#6"/>
    <trip id="veh126" type="veh_passenger" depart="77.34" departLane="best" from="46613711" to="95181774#0"/>
    <trip id="veh128" type="veh_passenger" depart="78.57" departLane="best" departSpeed="max" from="1036712190" to="458180193#3"/>
    <trip id="veh129" type="veh_passenger" depart="79.18" departLane="best" departSpeed="max" from="195743182#0" to="46443656#3"/>
    <trip id="veh130" type="veh_passenger" depart="79.80" departLane="best" from="525729009#0" to="1124078898#0"/>
    <trip id="veh131" type="veh_passenger" depart="80.41" departLane="best" departSpeed="max" from="46521998#0" to="167922071#0"/>
    <trip id="veh132" type="veh_passenger" depart="81.02" departLane="best" from="420906753#0" to="808190588"/>
    <trip id="veh133" type="veh_passenger" depart="81.64" departLane="best" from="671208357#0" to="1025734020#0"/>
    <trip id="veh134" type="veh_passenger" depart="82.25" departLane="best" from="420356173#0" to="194920158#7"/>
    <trip id="veh135" type="veh_passenger" depart="82.87" departLane="best" departSpeed="max" from="46521998#0" to="139919706#0"/>
    <trip id="veh136" type="veh_passenger" depart="83.48" departLane="best" departSpeed="max" from="5671192#0" to="458180193#0"/>
    <trip id="veh137" type="veh_passenger" depart="84.09" departLane="best" from="1023236297#0" to="743358443#0"/>
    <trip id="veh138" type="veh_passenger" depart="84.71" departLane="best" departSpeed="max" from="767683108#0" to="458180189#0"/>
    <trip id="veh139" type="veh_passenger" depart="85.32" departLane="best" departSpeed="max" from="630828581#0" to="460585328#7"/>
    <trip id="veh140" type="veh_passenger" depart="85.94" departLane="best" from="1080185970#0" to="1030123272#0"/>
    <trip id="veh141" type="veh_passenger" depart="86.55" departLane="best" departSpeed="max" from="196116975#0" to="808190576#0"/>
    <trip id="veh142" type="veh_passenger" depart="87.16" departLane="best" departSpeed="max" from="584971499#0" to="717634370#0"/>
    <trip id="veh143" type="veh_passenger" depart="87.78" departLane="best" from="739911957#0" to="1136460176#0"/>
    <trip id="veh144" type="veh_passenger" depart="88.39" departLane="best" from="167922075#0" to="1027181005#0"/>
    <trip id="veh145" type="veh_passenger" depart="89.00" departLane="best" from="569345544#0" to="743358443#0"/>
    <trip id="veh146" type="veh_passenger" depart="89.62" departLane="best" departSpeed="max" from="396444295#0" to="-273019810#1"/>
    <trip id="veh147" type="veh_passenger" depart="90.23" departLane="best" from="1106482765#0" to="95181774#0"/>
    <trip id="veh148" type="veh_passenger" depart="90.85" departLane="best" departSpeed="max" from="68325061" to="966105510#0"/>
    <trip id="veh149" type="veh_passenger" depart="91.46" departLane="best" departSpeed="max" from="600848485#0" to="739911957#0"/>
    <trip id="veh150" type="veh_passenger" depart="92.07" departLane="best" departSpeed="max" from="-226041024" to="5670348"/>
    <trip id="veh151" type="veh_passenger" depart="92.69" departLane="best" departSpeed="max" from="226041013#0" to="95181774#0"/>
    <trip id="veh152" type="veh_passenger" depart="93.30" departLane="best" departSpeed="max" from="600848479#0" to="717634746"/>
    <trip id="veh153" type="veh_passenger" depart="93.92" departLane="best" departSpeed="max" from="600848485#0" to="167922076#0"/>
    <trip id="veh154" type="veh_passenger" depart="94.53" departLane="best" departSpeed="max" from="584971499#0" to="1027189510#0"/>
    <trip id="veh155" type="veh_passenger" depart="95.14" departLane="best" from="68506907" to="717625447#0"/>
    <trip id="veh156" type="veh_passenger" depart="95.76" departLane="best" from="1213301201" to="671208358#0"/>
    <trip id="veh157" type="veh_passenger" depart="96.37" departLane="best" departSpeed="max" from="420901681#1" to="195743344#0"/>
    <trip id="veh158" type="veh_passenger" depart="96.98" departLane="best" departSpeed="max" from="584971499#0" to="682359029#0"/>
    <trip id="veh159" type="veh_passenger" depart="97.60" departLane="best" departSpeed="max" from="-226041024" to="1081893303#2"/>
    <trip id="veh160" type="veh_passenger" depart="98.21" departLane="best" from="198924587#0" to="717634746"/>
    <trip id="veh161" type="veh_passenger" depart="98.83" departLane="best" from="965833823#0" to="194926851#0"/>
    <trip id="veh162" type="veh_passenger" depart="99.44" departLane="best" departSpeed="max" from="46522160#0" to="420892263#0"/>
    <trip id="veh163" type="veh_passenger" depart="100.05" departLane="best" departSpeed="max" from="988956476" to="458180182#0"/>
    <trip id="veh164" type="veh_passenger" depart="100.67" departLane="best" from="954552256#1" to="1030123272#0"/>
    <trip id="veh165" type="veh_passenger" depart="101.28" departLane="best" from="966105510#0" to="1080185969#0"/>
    <trip id="veh166" type="veh_passenger" depart="101.89" departLane="best" from="964208970#0" to="167922074#0"/>
    <trip id="veh167" type="veh_passenger" depart="102.51" departLane="best" departSpeed="max" from="1036712190" to="420901925"/>
    <trip id="veh168" type="veh_passenger" depart="103.12" departLane="best" from="5670106#0" to="198924587#0"/>
    <trip id="veh169" type="veh_passenger" depart="103.74" departLane="best" from="464515890" to="458166897#23"/>
    <trip id="veh170" type="veh_passenger" depart="104.35" departLane="best" departSpeed="max" from="384649120#0" to="460585328#13"/>
    <trip id="veh171" type="veh_passenger" depart="104.96" departLane="best" from="169381961#0" to="528748997#6"/>
    <trip id="veh172" type="veh_passenger" depart="105.58" departLane="best" departSpeed="max" from="-1081893303#3" to="95181774#0"/>
    <trip id="veh173" type="veh_passenger" depart="106.19" departLane="best" departSpeed="max" from="458166897#0" to="542257008#0"/>
    <trip id="veh174" type="veh_passenger" depart="106.81" departLane="best" departSpeed="max" from="5671192#0" to="497165753#3"/>
    <trip id="veh176" type="veh_passenger" depart="108.03" departLane="best" from="483360105#0" to="-273019810#4"/>
    <trip id="veh177" type="veh_passenger" depart="108.65" departLane="best" departSpeed="max" from="196116975#0" to="708353351#0"/>
    <trip id="veh179" type="veh_passenger" depart="109.87" departLane="best" departSpeed="max" from="196116975#0" to="420892273#0"/>
    <trip id="veh180" type="veh_passenger" depart="110.49" departLane="best" departSpeed="max" from="396444295#0" to="195743336#0"/>
    <trip id="veh181" type="veh_passenger" depart="111.10" departLane="best" from="957035304#0" to="497165757#0"/>
    <trip id="veh182" type="veh_passenger" depart="111.72" departLane="best" departSpeed="max" from="767683108#0" to="464543615#0"/>
    <trip id="veh183" type="veh_passenger" depart="112.33" departLane="best" from="195743345#0" to="458180191#0"/>
    <trip id="veh184" type="veh_passenger" depart="112.94" departLane="best" from="-1081893303#1" to="195743208#0"/>
    <trip id="veh185" type="veh_passenger" depart="113.56" departLane="best" from="812949647#0" to="460585328#2"/>
    <trip id="veh186" type="veh_passenger" depart="114.17" departLane="best" departSpeed="max" from="46538405#0" to="421852035"/>
    <trip id="veh187" type="veh_passenger" depart="114.79" departLane="best" from="420892275#0" to="1136952921#0"/>
    <trip id="veh188" type="veh_passenger" depart="115.40" departLane="best" from="420901920#0" to="808190578#0"/>
    <trip id="veh189" type="veh_passenger" depart="116.01" departLane="best" departSpeed="max" from="584971499#0" to="1061979012#0"/>
    <trip id="veh190" type="veh_passenger" depart="116.63" departLane="best" from="1025734022#0" to="458166897#26"/>
    <trip id="veh191" type="veh_passenger" depart="117.24" departLane="best" departSpeed="max" from="46521998#0" to="308322448#0"/>
    <trip id="veh192" type="veh_passenger" depart="117.85" departLane="best" departSpeed="max" from="60325668" to="5672036#3"/>
    <trip id="veh193" type="veh_passenger" depart="118.47" departLane="best" from="1186131871" to="-420356168#1"/>
    <trip id="veh194" type="veh_passenger" depart="119.08" departLane="best" from="127693103#3" to="421853646#1"/>
    <trip id="veh195" type="veh_passenger" depart="119.70" departLane="best" from="1186131872" to="1020835925#0"/>
    <trip id="veh196" type="veh_passenger" depart="120.31" departLane="best" from="458180192#0" to="46492008"/>
    <trip id="veh197" type="veh_passenger" depart="120.92" departLane="best" from="1156946161#0" to="511699181#0"/>
    <trip id="veh198" type="veh_passenger" depart="121.54" departLane="best" from="46482602#2" to="1211049194#0"/>
    <trip id="veh199" type="veh_passenger" depart="122.15" departLane="best" departSpeed="max" from="46538405#0" to="-167922077#2"/>
    <trip id="veh200" type="veh_passenger" depart="122.76" departLane="best" departSpeed="max" from="5671801" to="5672991#0"/>
    <trip id="veh201" type="veh_passenger" depart="123.38" departLane="best" departSpeed="max" from="1036712190" to="420901925"/>
    <trip id="veh202" type="veh_passenger" depart="123.99" departLane="best" from="1136391284#0" to="963613972#0"/>
    <trip id="veh203" type="veh_passenger" depart="124.61" departLane="best" from="438385431#3" to="-5671801"/>
    <trip id="veh204" type="veh_passenger" depart="125.22" departLane="best" from="167922074#0" to="708353351#0"/>
    <trip id="veh205" type="veh_passenger" depart="125.83" departLane="best" departSpeed="max" from="420901681#1" to="589494595#0"/>
    <trip id="veh206" type="veh_passenger" depart="126.45" departLane="best" from="496986803#0" to="989261432"/>
    <trip id="veh208" type="veh_passenger" depart="127.68" departLane="best" from="717625447#0" to="464516471#4"/>
    <trip id="veh209" type="veh_passenger" depart="128.29" departLane="best" from="528748997#0" to="458166897#14"/>
    <trip id="veh210" type="veh_passenger" depart="128.90" departLane="best" departSpeed="max" from="630828581#0" to="458180191#0"/>
    <trip id="veh211" type="veh_passenger" depart="129.52" departLane="best" from="733667933#0" to="5671129#0"/>
    <trip id="veh212" type="veh_passenger" depart="130.13" departLane="best" from="420901921#0" to="1272613980#0"/>
    <trip id="veh213" type="veh_passenger" depart="130.74" departLane="best" from="167922071#0" to="46522003#0"/>
    <trip id="veh214" type="veh_passenger" depart="131.36" departLane="best" from="569345515#12" to="458166897#26"/>
    <trip id="veh215" type="veh_passenger" depart="131.97" departLane="best" from="46492010" to="460585328#22"/>
    <trip id="veh216" type="veh_passenger" depart="132.59" departLane="best" from="1023238044" to="195743208#0"/>
    <trip id="veh217" type="veh_passenger" depart="133.20" departLane="best" departSpeed="max" from="195743182#0" to="226041011#1"/>
    <trip id="veh219" type="veh_passenger" depart="134.43" departLane="best" departSpeed="max" from="1250866957#0" to="511699175#0"/>
    <trip id="veh220" type="veh_passenger" depart="135.04" departLane="best" departSpeed="max" from="396444295#0" to="458180187#2"/>
    <trip id="veh221" type="veh_passenger" depart="135.66" departLane="best" departSpeed="max" from="420356168#0" to="1135620538#0"/>
    <trip id="veh222" type="veh_passenger" depart="136.27" departLane="best" departSpeed="max" from="420356168#0" to="808190584#3"/>
    <trip id="veh223" type="veh_passenger" depart="136.88" departLane="best" from="460585328#0" to="511699181#0"/>
    <trip id="veh225" type="veh_passenger" depart="138.11" departLane="best" departSpeed="max" from="384649120#0" to="-167922077#2"/>
    <trip id="veh226" type="veh_passenger" depart="138.72" departLane="best" from="308322447#2" to="5672142#2"/>
    <trip id="veh227" type="veh_passenger" depart="139.34" departLane="best" departSpeed="max" from="68325061" to="962626218#0"/>
    <trip id="veh228" type="veh_passenger" depart="139.95" departLane="best" departSpeed="max" from="420356168#0" to="5671425#2-AddedOnRampEdge"/>
    <trip id="veh230" type="veh_passenger" depart="141.18" departLane="best" from="1211612938" to="1156946158#0"/>
    <trip id="veh231" type="veh_passenger" depart="141.79" departLane="best" from="420892265#0" to="421852042#0"/>
    <trip id="veh232" type="veh_passenger" depart="142.41" departLane="best" from="226041023" to="497165757#0"/>
    <trip id="veh233" type="veh_passenger" depart="143.02" departLane="best" departSpeed="max" from="396444295#0" to="1052660934#0"/>
    <trip id="veh234" type="veh_passenger" depart="143.63" departLane="best" from="46482541#0-AddedOnRampEdge" to="420899372#0"/>
    <trip id="veh235" type="veh_passenger" depart="144.25" departLane="best" from="388696207#3" to="458180199#5"/>
    <trip id="veh236" type="veh_passenger" depart="144.86" departLane="best" from="22937242" to="46522003#0"/>
    <trip id="veh238" type="veh_passenger" depart="146.09" departLane="best" from="-584971501#2" to="420276995#0"/>
    <trip id="veh239" type="veh_passenger" depart="146.70" departLane="best" from="1207834765#0" to="22898530#0"/>
    <trip id="veh240" type="veh_passenger" depart="147.32" departLane="best" from="5673276#0" to="420276995#0"/>
    <trip id="veh241" type="veh_passenger" depart="147.93" departLane="best" departSpeed="max" from="5671801" to="68506902"/>
    <trip id="veh242" type="veh_passenger" depart="148.55" departLane="best" from="169267539#0" to="1022822152#0"/>
    <trip id="veh243" type="veh_passenger" depart="149.16" departLane="best" departSpeed="max" from="-195743208#4" to="458180185#0"/>