<?xml version="1.0" encoding="UTF-8"?>

<!-- generated on 2024-05-16 15:30:57.424589 by osmWebWizard.py v1_19_0+1953-d1f119dd4db
<configuration>
    <net-file value="C:\Users\jetmi\Sumo\2024-05-16-15-30-39\osm.net.xml.gz"/>
    <output-trip-file value="C:\Users\jetmi\Sumo\2024-05-16-15-30-39\osm.bicycle.trips.xml"/>
    <route-file value="C:\Users\jetmi\Sumo\2024-05-16-15-30-39\osm.bicycle.rou.xml"/>
    <prefix value="bike"/>
    <trip-attributes value="departLane=&quot;best&quot;"/>
    <fringe-start-attributes value="departSpeed=&quot;max&quot;"/>
    <vehicle-class value="bicycle"/>
    <fringe-factor value="2"/>
    <vclass value="bicycle"/>
    <via-edge-types value="highway.motorway,highway.motorway_link,highway.trunk_link,highway.primary_link,highway.secondary_link,highway.tertiary_link"/>
    <max-distance value="8000.0"/>
    <remove-loops value="True"/>
    <validate value="True"/>
    <insertion-density value="6.0"/>
</configuration>
-->

<!-- generated on 2024-05-16 15:30:56 by Eclipse SUMO duarouter Version v1_19_0+1953-d1f119dd4db
<configuration xmlns:xsi="http://www.w3.org/2001/XMLSchema-instance" xsi:noNamespaceSchemaLocation="http://sumo.dlr.de/xsd/duarouterConfiguration.xsd">

    <input>
        <net-file value="C:\Users\jetmi\Sumo\2024-05-16-15-30-39\osm.net.xml.gz"/>
        <route-files value="C:\Users\jetmi\Sumo\2024-05-16-15-30-39\osm.bicycle.trips.xml"/>
    </input>

    <output>
        <output-file value="C:\Users\jetmi\Sumo\2024-05-16-15-30-39\osm.bicycle.trips.xml.tmp"/>
        <alternatives-output value="NUL"/>
        <write-trips value="true"/>
    </output>

    <processing>
        <remove-loops value="true"/>
    </processing>

    <time>
        <begin value="0.0"/>
        <end value="3600.0"/>
    </time>

    <report>
        <no-warnings value="true"/>
        <ignore-errors value="true"/>
        <no-step-log value="true"/>
    </report>

</configuration>
-->

<routes xmlns:xsi="http://www.w3.org/2001/XMLSchema-instance" xsi:noNamespaceSchemaLocation="http://sumo.dlr.de/xsd/routes_file.xsd">
    <vType id="bike_bicycle" vClass="bicycle"/>
    <trip id="bike0" type="bike_bicycle" depart="0.00" departLane="best" departSpeed="max" from="46522160#0" to="-420356168#1"/>
    <trip id="bike1" type="bike_bicycle" depart="3.39" departLane="best" from="167922074#0" to="1156946156#0"/>
    <trip id="bike2" type="bike_bicycle" depart="6.77" departLane="best" from="-542259076#5" to="497165756#3"/>
    <trip id="bike3" type="bike_bicycle" depart="10.16" departLane="best" from="717634745" to="1021065071#0"/>
    <trip id="bike4" type="bike_bicycle" depart="13.54" departLane="best" from="420496090#0" to="-420895732#1"/>
    <trip id="bike5" type="bike_bicycle" depart="16.93" departLane="best" from="1156946160#0" to="458166897#14"/>
    <trip id="bike6" type="bike_bicycle" depart="20.31" departLane="best" from="-273019810#1" to="194926851#0"/>
    <trip id="bike7" type="bike_bicycle" depart="23.70" departLane="best" departSpeed="max" from="46538405#0" to="458180198#0"/>
    <trip id="bike8" type="bike_bicycle" depart="27.08" departLane="best" from="1160618888#0" to="464515890"/>
    <trip id="bike9" type="bike_bicycle" depart="30.47" departLane="best" from="569345515#9" to="-1272613981#1"/>
    <trip id="bike10" type="bike_bicycle" depart="33.85" departLane="best" from="1049841322#0" to="511699176#0"/>
    <trip id="bike11" type="bike_bicycle" depart="37.24" departLane="best" departSpeed="max" from="226041013#0" to="1051750428#0"/>
    <trip id="bike12" type="bike_bicycle" depart="40.62" departLane="best" from="964208970#0" to="226041006#2"/>
    <trip id="bike13" type="bike_bicycle" depart="44.01" departLane="best" from="1024425029#0" to="1023136586#0"/>
    <trip id="bike14" type="bike_bicycle" depart="47.39" departLane="best" from="618990022#10" to="46481741#0"/>
    <trip id="bike15" type="bike_bicycle" depart="50.78" departLane="best" from="569345515#3" to="1049920716#0"/>
    <trip id="bike16" type="bike_bicycle" depart="54.16" departLane="best" from="458180191#3" to="972926362#0"/>
    <trip id="bike17" type="bike_bicycle" depart="57.55" departLane="best" from="324118554#0" to="460069727#0"/>
    <trip id="bike18" type="bike_bicycle" depart="60.93" departLane="best" from="569345547#0" to="460585328#10"/>
    <trip id="bike19" type="bike_bicycle" depart="64.32" departLane="best" from="630828582#0" to="46443582"/>
    <trip id="bike20" type="bike_bicycle" depart="67.71" departLane="best" from="511699178#0" to="-46538405#1"/>
    <trip id="bike21" type="bike_bicycle" depart="71.09" departLane="best" from="1198594029#0" to="186202420#0"/>
    <trip id="bike22" type="bike_bicycle" depart="74.48" departLane="best" from="1021068251#0" to="196117083#0"/>
    <trip id="bike23" type="bike_bicycle" depart="77.86" departLane="best" from="1027181005#0" to="167922071#0"/>
    <trip id="bike24" type="bike_bicycle" depart="81.25" departLane="best" from="46522005#0" to="273019812"/>
    <trip id="bike25" type="bike_bicycle" depart="84.63" departLane="best" from="1022822153#0" to="1136391283#0"/>
    <trip id="bike26" type="bike_bicycle" depart="88.02" departLane="best" from="127693103#0" to="835176556#0"/>
    <trip id="bike27" type="bike_bicycle" depart="91.40" departLane="best" departSpeed="max" from="46538405#0" to="46482536"/>
    <trip id="bike28" type="bike_bicycle" depart="94.79" departLane="best" from="1088325198" to="125479721#0"/>
    <trip id="bike29" type="bike_bicycle" depart="98.17" departLane="best" from="1080185967#0" to="324118558#0"/>
    <trip id="bike31" type="bike_bicycle" depart="104.94" departLane="best" from="460585328#16" to="497258109#0"/>
    <trip id="bike32" type="bike_bicycle" depart="108.33" departLane="best" departSpeed="max" from="600848485#0" to="5672118#0"/>
    <trip id="bike33" type="bike_bicycle" depart="111.71" departLane="best" from="1198594029#0" to="-420904618#3"/>
    <trip id="bike34" type="bike_bicycle" depart="115.10" departLane="best" from="195743344#0" to="541350711#0"/>
    <trip id="bike35" type="bike_bicycle" depart="118.48" departLane="best" departSpeed="max" from="1150636501#0" to="895394557#0"/>
    <trip id="bike38" type="bike_bicycle" depart="128.64" departLane="best" from="808190584#0" to="420903239#0"/>
    <trip id="bike39" type="bike_bicycle" depart="132.03" departLane="best" from="1267505843#0" to="1201651437#3"/>
    <trip id="bike40" type="bike_bicycle" depart="135.41" departLane="best" from="460585328#4" to="1211612938"/>
    <trip id="bike41" type="bike_bicycle" depart="138.80" departLane="best" from="46443656#3" to="743358443#0"/>
    <trip id="bike42" type="bike_bicycle" depart="142.18" departLane="best" from="384649120#2" to="1136952921#0"/>
    <trip id="bike43" type="bike_bicycle" depart="145.57" departLane="best" from="989265273#3" to="458166897#23"/>
    <trip id="bike45" type="bike_bicycle" depart="152.34" departLane="best" from="1030123273#0" to="-46520921#1"/>
    <trip id="bike46" type="bike_bicycle" depart="155.72" departLane="best" from="5672752#0" to="420890023#0"/>
    <trip id="bike47" type="bike_bicycle" depart="159.11" departLane="best" from="-584971501#2" to="350726030#0"/>
    <trip id="bike48" type="bike_bicycle" depart="162.49" departLane="best" from="989265273#0" to="458180187#4"/>
    <trip id="bike49" type="bike_bicycle" depart="165.88" departLane="best" from="974611016#0" to="671208358#0"/>
    <trip id="bike50" type="bike_bicycle" depart="169.26" departLane="best" from="-167922076#2" to="541350711#3"/>
    <trip id="bike51" type="bike_bicycle" depart="172.65" departLane="best" from="497165753#9" to="458180192#0"/>
    <trip id="bike52" type="bike_bicycle" depart="176.03" departLane="best" from="1272613980#0" to="46525065#0"/>
    <trip id="bike54" type="bike_bicycle" depart="182.80" departLane="best" from="420901919#0" to="957035304#0"/>
    <trip id="bike55" type="bike_bicycle" depart="186.19" departLane="best" from="700951338#0" to="1211612938"/>
    <trip id="bike56" type="bike_bicycle" depart="189.57" departLane="best" from="452319915" to="1080185970#0"/>
    <trip id="bike57" type="bike_bicycle" depart="192.96" departLane="best" from="808190579" to="708353351#0"/>
    <trip id="bike58" type="bike_bicycle" depart="196.35" departLane="best" from="420894338#0" to="46525058#0"/>
    <trip id="bike59" type="bike_bicycle" depart="199.73" departLane="best" from="46482538#0" to="1051744070#0"/>
    <trip id="bike60" type="bike_bicycle" depart="203.12" departLane="best" departSpeed="max" from="5671192#0" to="458180193#3"/>
    <trip id="bike61" type="bike_bicycle" depart="206.50" departLane="best" from="5672036#3" to="458180188#0"/>
    <trip id="bike62" type="bike_bicycle" depart="209.89" departLane="best" from="-1081893303#1" to="196116976#3"/>
    <trip id="bike63" type="bike_bicycle" depart="213.27" departLane="best" from="1205900284" to="814278019#0"/>
    <trip id="bike64" type="bike_bicycle" depart="216.66" departLane="best" from="708353352#0" to="573228989#0"/>
    <trip id="bike65" type="bike_bicycle" depart="220.04" departLane="best" from="195743336#3" to="-542259076#5"/>
    <trip id="bike66" type="bike_bicycle" depart="223.43" departLane="best" from="708353352#0" to="945460473#0"/>
    <trip id="bike67" type="bike_bicycle" depart="226.81" departLane="best" from="1022813500" to="438384693#3"/>
    <trip id="bike69" type="bike_bicycle" depart="233.58" departLane="best" from="5671425#0" to="1034529064#0"/>
    <trip id="bike70" type="bike_bicycle" depart="236.97" departLane="best" from="420906755#0" to="458180199#5"/>
    <trip id="bike71" type="bike_bicycle" depart="240.35" departLane="best" from="1267505843#0" to="708353352#0"/>
    <trip id="bike72" type="bike_bicycle" depart="243.74" departLane="best" from="420509471#0" to="1136391284#0"/>
    <trip id="bike73" type="bike_bicycle" depart="247.12" departLane="best" from="458180192#0" to="1049920716#0"/>
    <trip id="bike74" type="bike_bicycle" depart="250.51" departLane="best" from="1136391284#0" to="195743336#0"/>
    <trip id="bike75" type="bike_bicycle" depart="253.89" departLane="best" from="989265272#0" to="46583189#0"/>
    <trip id="bike76" type="bike_bicycle" depart="257.28" departLane="best" from="420892271#0" to="458177131#0"/>
    <trip id="bike77" type="bike_bicycle" depart="260.67" departLane="best" from="1037772011" to="1156946157#0"/>
    <trip id="bike78" type="bike_bicycle" depart="264.05" departLane="best" from="226041012#3" to="464515890"/>
    <trip id="bike79" type="bike_bicycle" depart="267.44" departLane="best" from="1198594030#0" to="1149178606"/>
    <trip id="bike81" type="bike_bicycle" depart="274.21" departLane="best" from="1198594029#0" to="789634640"/>
    <trip id="bike82" type="bike_bicycle" depart="277.59" departLane="best" departSpeed="max" from="630828581#0" to="-589494596#1"/>
    <trip id="bike84" type="bike_bicycle" depart="284.36" departLane="best" from="1156946156#0" to="1135614655#0"/>
    <trip id="bike85" type="bike_bicycle" depart="287.75" departLane="best" from="835176554#0" to="463033874"/>
    <trip id="bike86" type="bike_bicycle" depart="291.13" departLane="best" from="420906752#0" to="5672155#0"/>
    <trip id="bike87" type="bike_bicycle" depart="294.52" departLane="best" from="569345515#3" to="1106482765#0"/>
    <trip id="bike88" type="bike_bicycle" depart="297.90" departLane="best" from="1025734020#0" to="420892265#0"/>
    <trip id="bike89" type="bike_bicycle" depart="301.29" departLane="best" from="420509471#0" to="-420904621#1"/>
    <trip id="bike90" type="bike_bicycle" depart="304.67" departLane="best" from="542257009#0" to="497165756#3"/>
    <trip id="bike91" type="bike_bicycle" depart="308.06" departLane="best" from="988977545#9" to="1023236297#0"/>
    <trip id="bike92" type="bike_bicycle" depart="311.44" departLane="best" from="388696206#0" to="226041011#1"/>
    <trip id="bike94" type="bike_bicycle" depart="318.21" departLane="best" from="1124078898#0" to="420901919#0"/>
    <trip id="bike95" type="bike_bicycle" depart="321.60" departLane="best" from="420494981#0" to="167922071#0"/>
    <trip id="bike96" type="bike_bicycle" depart="324.98" departLane="best" from="1211608943#0" to="808190588"/>
    <trip id="bike97" type="bike_bicycle" depart="328.37" departLane="best" from="420894342#0" to="671208358#0"/>
    <trip id="bike98" type="bike_bicycle" depart="331.76" departLane="best" from="460067515#0" to="-496986969#3"/>
    <trip id="bike99" type="bike_bicycle" depart="335.14" departLane="best" from="992144531#0" to="588157337#0"/>
    <trip id="bike100" type="bike_bicycle" depart="338.53" departLane="best" from="972926362#0" to="814278017#0"/>
    <trip id="bike101" type="bike_bicycle" depart="341.91" departLane="best" from="618990022#11" to="1061623142#0"/>
    <trip id="bike102" type="bike_bicycle" depart="345.30" departLane="best" from="422298615#0" to="1136460176#0"/>
    <trip id="bike103" type="bike_bicycle" depart="348.68" departLane="best" from="384649120#8" to="542259076#0"/>
    <trip id="bike104" type="bike_bicycle" depart="352.07" departLane="best" from="324118557#0" to="988984232"/>
    <trip id="bike105" type="bike_bicycle" depart="355.45" departLane="best" from="1267505843#0" to="5672155#0"/>
    <trip id="bike106" type="bike_bicycle" depart="358.84" departLane="best" from="420901920#0" to="420890024#0"/>
    <trip id="bike107" type="bike_bicycle" depart="362.22" departLane="best" from="964208970#0" to="989265273#0"/>
    <trip id="bike108" type="bike_bicycle" depart="365.61" departLane="best" from="460585328#13" to="541331485#0"/>
    <trip id="bike109" type="bike_bicycle" depart="368.99" departLane="best" from="1061622295#0" to="194926851#0"/>
    <trip id="bike111" type="bike_bicycle" depart="375.76" departLane="best" from="458180193#6" to="5670225#0"/>
    <trip id="bike112" type="bike_bicycle" depart="379.15" departLane="best" from="542259076#0" to="46443656#16"/>
    <trip id="bike113" type="bike_bicycle" depart="382.53" departLane="best" from="1027189508" to="630828581#2"/>
    <trip id="bike114" type="bike_bicycle" depart="385.92" departLane="best" from="1061979013#0" to="963613972#0"/>
    <trip id="bike115" type="bike_bicycle" depart="389.30" departLane="best" from="1021068251#0" to="1088327050#0"/>
    <trip id="bike116" type="bike_bicycle" depart="392.69" departLane="best" from="464516471#4" to="497165753#9"/>
    <trip id="bike117" type="bike_bicycle" depart="396.08" departLane="best" from="1201651437#0" to="1029634436#0"/>
    <trip id="bike119" type="bike_bicycle" depart="402.85" departLane="best" from="464516471#4" to="420907908#0"/>
    <trip id="bike120" type="bike_bicycle" depart="406.23" departLane="best" from="420356172#0" to="46443656#16"/>
    <trip id="bike121" type="bike_bicycle" depart="409.62" departLane="best" from="458180183#0" to="835176554#0"/>
    <trip id="bike122" type="bike_bicycle" depart="413.00" departLane="best" from="1136460179#0" to="528748997#6"/>
    <trip id="bike124" type="bike_bicycle" depart="419.77" departLane="best" from="496990647#6" to="194926855#0"/>
    <trip id="bike125" type="bike_bicycle" depart="423.16" departLane="best" from="195743345#0" to="5670874#0"/>
    <trip id="bike126" type="bike_bicycle" depart="426.54" departLane="best" from="-825236402" to="420902878#0"/>
    <trip id="bike127" type="bike_bicycle" depart="429.93" departLane="best" from="989265274#0" to="989265273#0"/>
    <trip id="bike128" type="bike_bicycle" depart="433.31" departLane="best" from="-825236402" to="1136460176#0"/>
    <trip id="bike129" type="bike_bicycle" depart="436.70" departLane="best" from="1267505843#0" to="835176553#0"/>
    <trip id="bike131" type="bike_bicycle" depart="443.47" departLane="best" from="308322447#0" to="464515891#0"/>
    <trip id="bike132" type="bike_bicycle" depart="446.85" departLane="best" departSpeed="max" from="584971499#0" to="511699183#0"/>
    <trip id="bike133" type="bike_bicycle" depart="450.24" departLane="best" from="46482540" to="988987061#0"/>
    <trip id="bike134" type="bike_bicycle" depart="453.62" departLane="best" departSpeed="max" from="46579579" to="-167922072#1"/>
    <trip id="bike135" type="bike_bicycle" depart="457.01" departLane="best" from="569345537#3" to="194926855#0"/>
    <trip id="bike136" type="bike_bicycle" depart="460.40" departLane="best" from="496986969#0" to="671202178#0"/>
    <trip id="bike137" type="bike_bicycle" depart="463.78" departLane="best" from="1049920716#0" to="1027189509#2"/>
    <trip id="bike138" type="bike_bicycle" depart="467.17" departLane="best" from="1027189510#0" to="460585328#0"/>
    <trip id="bike139" type="bike_bicycle" depart="470.55" departLane="best" from="167922072#0" to="46481744#1"/>
    <trip id="bike140" type="bike_bicycle" depart="473.94" departLane="best" from="519705722#0" to="1124078898#0"/>
    <trip id="bike141" type="bike_bicycle" depart="477.32" departLane="best" from="46522002#0" to="1212776159#0"/>
    <trip id="bike142" type="bike_bicycle" depart="480.71" departLane="best" from="438384693#3" to="789634640"/>
    <trip id="bike143" type="bike_bicycle" depart="484.09" departLane="best" from="601733867#0" to="1022796561"/>
    <trip id="bike144" type="bike_bicycle" depart="487.48" departLane="best" from="420509471#0" to="167922070#0"/>
    <trip id="bike145" type="bike_bicycle" depart="490.86" departLane="best" from="-1087048475#1" to="5671691#0"/>
    <trip id="bike146" type="bike_bicycle" depart="494.25" departLane="best" from="46522007#0" to="1211612937#0"/>
    <trip id="bike147" type="bike_bicycle" depart="497.63" departLane="best" from="5670106#0" to="460067515#0"/>
    <trip id="bike148" type="bike_bicycle" depart="501.02" departLane="best" from="420890025#0" to="-167922077#2"/>
    <trip id="bike149" type="bike_bicycle" depart="504.40" departLane="best" from="-989265268#2" to="717625447#3"/>
    <trip id="bike150" type="bike_bicycle" depart="507.79" departLane="best" departSpeed="max" from="767683108#0" to="458180198#0"/>
    <trip id="bike151" type="bike_bicycle" depart="511.17" departLane="best" from="584971501#0" to="989265273#3"/>
    <trip id="bike152" type="bike_bicycle" depart="514.56" departLane="best" from="1052631409#0" to="1031879418#0"/>
    <trip id="bike153" type="bike_bicycle" depart="517.94" departLane="best" from="195743336#6" to="743358443#0"/>
    <trip id="bike154" type="bike_bicycle" depart="521.33" departLane="best" from="5673117" to="68674962#1"/>
    <trip id="bike156" type="bike_bicycle" depart="528.10" departLane="best" from="1211608943#0" to="1025734018#0"/>
    <trip id="bike157" type="bike_bicycle" depart="531.49" departLane="best" from="5672118#0" to="717625448#0"/>
    <trip id="bike158" type="bike_bicycle" depart="534.87" departLane="best" departSpeed="max" from="396444295#0" to="46482603"/>
    <trip id="bike159" type="bike_bicycle" depart="538.26" departLane="best" from="1061622295#0" to="814278021#0"/>
    <trip id="bike160" type="bike_bicycle" depart="541.64" departLane="best" from="658583340#6" to="974611016#0"/>
    <trip id="bike161" type="bike_bicycle" depart="545.03" departLane="best" from="569345518#0" to="569345537#3"/>
    <trip id="bike162" type="bike_bicycle" depart="548.41" departLane="best" from="22937242" to="5669664#0"/>
    <trip id="bike163" type="bike_bicycle" depart="551.80" departLane="best" from="198924778#0" to="825236402"/>
    <trip id="bike164" type="bike_bicycle" depart="555.18" departLane="best" from="5673561#0" to="68674962#1"/>
    <trip id="bike165" type="bike_bicycle" depart="558.57" departLane="best" from="569345518#0" to="1222356565#0"/>
    <trip id="bike166" type="bike_bicycle" depart="561.95" departLane="best" from="5672149#3" to="1025734022#0"/>
    <trip id="bike167" type="bike_bicycle" depart="565.34" departLane="best" from="68674962#1" to="671202178#0"/>
    <trip id="bike168" type="bike_bicycle" depart="568.72" departLane="best" from="1165644579#0" to="569345537#0"/>
    <trip id="bike169" type="bike_bicycle" depart="572.11" departLane="best" from="420902874#0" to="195743210"/>
    <trip id="bike170" type="bike_bicycle" depart="575.49" departLane="best" from="5672991#0" to="1156946160#0"/>
    <trip id="bike171" type="bike_bicycle" depart="578.88" departLane="best" departSpeed="max" from="-226041024" to="1106482767#0"/>
    <trip id="bike172" type="bike_bicycle" depart="582.26" departLane="best" departSpeed="max" from="198595461#0" to="68674962#1"/>
    <trip id="bike173" type="bike_bicycle" depart="585.65" departLane="best" from="968513230#3" to="167922072#0"/>
    <trip id="bike174" type="bike_bicycle" depart="589.04" departLane="best" from="46525065#0" to="388696206#0"/>
    <trip id="bike175" type="bike_bicycle" depart="592.42" departLane="best" departSpeed="max" from="988977545#1" to="458180191#6"/>
    <trip id="bike176" type="bike_bicycle" depart="595.81" departLane="best" from="835176557#0" to="1027189509#2"/>
    <trip id="bike177" type="bike_bicycle" depart="599.19" departLane="best" from="974611015#0" to="1080185970#0"/>
    <trip id="bike178" type="bike_bicycle" depart="602.58" departLane="best" from="420892271#0" to="1213301201"/>
    <trip id="bike179" type="bike_bicycle" depart="605.96" departLane="best" from="1029634436#0" to="420892271#0"/>
    <trip id="bike180" type="bike_bicycle" depart="609.35" departLane="best" from="542257009#0" to="195743336#6"/>
    <trip id="bike181" type="bike_bicycle" depart="612.73" departLane="best" from="46481755#0" to="458166897#26"/>
    <trip id="bike182" type="bike_bicycle" depart="616.12" departLane="best" from="36801165" to="46443582"/>
    <trip id="bike183" type="bike_bicycle" depart="619.50" departLane="best" from="1212776159#0" to="511924978#1"/>
    <trip id="bike184" type="bike_bicycle" depart="622.89" departLane="best" departSpeed="max" from="-1081893303#3" to="812949648#0"/>
    <trip id="bike185" type="bike_bicycle" depart="626.27" departLane="best" from="458180191#6" to="541350711#0"/>
    <trip id="bike188" type="bike_bicycle" depart="636.43" departLane="best" from="541350711#3" to="198595461#2"/>
    <trip id="bike189" type="bike_bicycle" depart="639.81" departLane="best" from="195743342#9" to="618990022#8"/>
    <trip id="bike190" type="bike_bicycle" depart="643.20" departLane="best" from="525729009#0" to="194926856#0"/>
    <trip id="bike192" type="bike_bicycle" depart="649.97" departLane="best" from="388696206#0" to="194926847#0"/>
    <trip id="bike193" type="bike_bicycle" depart="653.36" departLane="best" from="569345515#0" to="420509471#0"/>
    <trip id="bike194" type="bike_bicycle" depart="656.74" departLane="best" from="835176558#0" to="497165756#3"/>
    <trip id="bike195" type="bike_bicycle" depart="660.13" departLane="best" departSpeed="max" from="767683108#0" to="46482592#0"/>
    <trip id="bike197" type="bike_bicycle" depart="666.90" departLane="best" from="-1081893303#1" to="-169267538#1"/>
    <trip id="bike199" type="bike_bicycle" depart="673.67" departLane="best" departSpeed="max" from="46579579" to="-420904620"/>
    <trip id="bike200" type="bike_bicycle" depart="677.05" departLane="best" from="420894338#0" to="1136460176#0"/>
    <trip id="bike201" type="bike_bicycle" depart="680.44" departLane="best" from="420906752#0" to="767990686"/>
    <trip id="bike203" type="bike_bicycle" depart="687.21" departLane="best" from="1022796561" to="458177130#0"/>
    <trip id="bike204" type="bike_bicycle" depart="690.59" departLane="best" from="46522000#0" to="226041006#0"/>
    <trip id="bike205" type="bike_bicycle" depart="693.98" departLane="best" from="569345537#6" to="5670867#0"/>
    <trip id="bike206" type="bike_bicycle" depart="697.36" departLane="best" from="458180191#0" to="1156946157#0"/>
    <trip id="bike207" type="bike_bicycle" depart="700.75" departLane="best" from="1136391283#0" to="388696206#0"/>
    <trip id="bike208" type="bike_bicycle" depart="704.13" departLane="best" from="1207834768#0" to="420907903"/>
    <trip id="bike209" type="bike_bicycle" depart="707.52" departLane="best" from="618990022#14" to="626221794#0"/>
    <trip id="bike210" type="bike_bicycle" depart="710.90" departLane="best" from="420281339#0" to="-46520921#6"/>
    <trip id="bike212" type="bike_bicycle" depart="717.68" departLane="best" from="439933933" to="1201651435#3"/>
    <trip id="bike213" type="bike_bicycle" depart="721.06" departLane="best" from="46583189#0" to="-1272613980#2"/>
    <trip id="bike215" type="bike_bicycle" depart="727.83" departLane="best" from="1027189510#0" to="420890028"/>
    <trip id="bike217" type="bike_bicycle" depart="734.60" departLane="best" from="458177130#0" to="-46579579"/>
    <trip id="bike219" type="bike_bicycle" depart="741.37" departLane="best" from="420901921#0" to="5673515#0"/>
    <trip id="bike220" type="bike_bicycle" depart="744.76" departLane="best" from="496989355#3" to="988987061#0"/>
    <trip id="bike221" type="bike_bicycle" depart="748.14" departLane="best" from="464516471#4" to="954520388#0"/>
    <trip id="bike223" type="bike_bicycle" depart="754.91" departLane="best" from="525729009#0" to="458166897#14"/>
    <trip id="bike224" type="bike_bicycle" depart="758.30" departLane="best" from="573228989#0" to="458180199#2"/>
    <trip id="bike225" type="bike_bicycle" depart="761.68" departLane="best" from="733667933#3" to="464516471#2"/>
    <trip id="bike226" type="bike_bicycle" depart="765.07" departLane="best" from="420906755#0" to="1211608943#0"/>
    <trip id="bike227" type="bike_bicycle" depart="768.45" departLane="best" from="1211049195#0" to="496990647#0"/>
    <trip id="bike228" type="bike_bicycle" depart="771.84" departLane="best" from="5671425#0" to="458180184#0"/>
    <trip id="bike229" type="bike_bicycle" depart="775.22" departLane="best" from="-46520921#1" to="127693103#0"/>
    <trip id="bike230" type="bike_bicycle" depart="778.61" departLane="best" from="1021047632#0" to="-167922077#2"/>
    <trip id="bike232" type="bike_bicycle" depart="785.38" departLane="best" from="458180193#0" to="569345515#0"/>
    <trip id="bike233" type="bike_bicycle" depart="788.77" departLane="best" from="1201651432#0" to="505317783#0"/>
    <trip id="bike234" type="bike_bicycle" depart="792.15" departLane="best" departSpeed="max" from="511699179" to="-5672752#3"/>
    <trip id="bike235" type="bike_bicycle" depart="795.54" departLane="best" departSpeed="max" from="396444295#0" to="458180196#0"/>
    <trip id="bike236" type="bike_bicycle" depart="798.92" departLane="best" departSpeed="max" from="420356168#0" to="1135614655#0"/>
    <trip id="bike237" type="bike_bicycle" depart="802.31" departLane="best" from="420356173#0" to="789634640"/>
    <trip id="bike238" type="bike_bicycle" depart="805.69" departLane="best" from="46443656#3" to="505582406#0"/>
    <trip id="bike239" type="bike_bicycle" depart="809.08" departLane="best" from="626514137#0" to="5671425#2"/>
    <trip id="bike240" type="bike_bicycle" depart="812.46" departLane="best" from="324118558#0" to="-1272613981#1"/>
    <trip id="bike241" type="bike_bicycle" depart="815.85" departLane="best" from="226041030" to="5670874#0"/>
    <trip id="bike242" type="bike_bicycle" depart="819.23" departLane="best" from="420892264#0" to="957035304#0"/>
    <trip id="bike243" type="bike_bicycle" depart="822.62" departLane="best" from="420356172#0" to="5670225#0"/>
    <trip id="bike244" type="bike_bicycle" depart="826.00" departLane="best" from="458180197#0" to="46481738#6"/>
    <trip id="bike245" type="bike_bicycle" depart="829.39" departLane="best" from="1160618888#0" to="1136952921#0"/>
    <trip id="bike246" type="bike_bicycle" depart="832.77" departLane="best" from="420892266#0" to="-420894342#1"/>
    <trip id="bike247" type="bike_bicycle" depart="836.16" departLane="best" from="497165756#0" to="497165757#0"/>
    <trip id="bike248" type="bike_bicycle" depart="839.54" departLane="best" from="388696207#0" to="1061622295#0"/>
    <trip id="bike249" type="bike_bicycle" depart="842.93" departLane="best" from="420904620" to="1031879418#0"/>
    <trip id="bike250" type="bike_bicycle" depart="846.31" departLane="best" from="46482609#0" to="-420356168#1"/>
    <trip id="bike251" type="bike_bicycle" depart="849.70" departLane="best" from="384178816#0" to="460585329#0"/>
    <trip id="bike252" type="bike_bicycle" depart="853.09" departLane="best" from="-273019810#4" to="46525065#6"/>
    <trip id="bike253" type="bike_bicycle" depart="856.47" departLane="best" from="1049920717#0" to="420904615#0"/>
    <trip id="bike254" type="bike_bicycle" depart="859.86" departLane="best" departSpeed="max" from="-497165757#1" to="324118558#0"/>
    <trip id="bike255" type="bike_bicycle" depart="863.24" departLane="best" departSpeed="max" from="1150636501#0" to="196117039#0"/>
    <trip id="bike256" type="bike_bicycle" depart="866.63" departLane="best" departSpeed="max" from="5671192#0" to="324118558#0"/>
    <trip id="bike257" type="bike_bicycle" depart="870.01" departLane="best" from="5670873#0" to="22916381#0"/>
    <trip id="bike258" type="bike_bicycle" depart="873.40" departLane="best" from="1211612937#0" to="-989265269#1"/>
    <trip id="bike259" type="bike_bicycle" depart="876.78" departLane="best" from="-196116988#1" to="458180193#3"/>
    <trip id="bike260" type="bike_bicycle" depart="880.17" departLane="best" from="992144531#0" to="226041028#0"/>
    <trip id="bike261" type="bike_bicycle" depart="883.55" departLane="best" departSpeed="max" from="46538405#0" to="5672149#0"/>
    <trip id="bike262" type="bike_bicycle" depart="886.94" departLane="best" from="46579578#0" to="5670938#0"/>
    <trip id="bike263" type="bike_bicycle" depart="890.32" departLane="best" from="954520389#0" to="194926851#0"/>
    <trip id="bike264" type="bike_bicycle" depart="893.71" departLane="best" from="-196117083#2" to="1051744070#0"/>